# generated using pymatgen
data_ZrO2
_symmetry_space_group_name_H-M   'P 1'
_cell_length_a   7.28762200
_cell_length_b   7.28762200
_cell_length_c   10.62912000
_cell_angle_alpha   90.00000000
_cell_angle_beta   90.00000000
_cell_angle_gamma   90.00000000
_symmetry_Int_Tables_number   1
_chemical_formula_structural   ZrO2
_chemical_formula_sum   'Zr16 O32'
_cell_volume   564.50655153
_cell_formula_units_Z   16
loop_
 _symmetry_equiv_pos_site_id
 _symmetry_equiv_pos_as_xyz
  1  'x, y, z'
loop_
 _atom_site_type_symbol
 _atom_site_label
 _atom_site_symmetry_multiplicity
 _atom_site_fract_x
 _atom_site_fract_y
 _atom_site_fract_z
 _atom_site_occupancy
  Zr  Zr0  1  0.00000000  0.00000000  0.00000000  1.0
  Zr  Zr1  1  0.00000000  0.00000000  0.50000000  1.0
  Zr  Zr2  1  1.00000000  0.50000000  0.00000000  1.0
  Zr  Zr3  1  1.00000000  0.50000000  0.50000000  1.0
  Zr  Zr4  1  0.50000000  0.00000000  0.00000000  1.0
  Zr  Zr5  1  0.50000000  0.00000000  0.50000000  1.0
  Zr  Zr6  1  0.50000000  0.50000000  0.00000000  1.0
  Zr  Zr7  1  0.50000000  0.50000000  0.50000000  1.0
  Zr  Zr8  1  0.25000000  0.25000000  0.25000000  1.0
  Zr  Zr9  1  0.25000000  0.25000000  0.75000000  1.0
  Zr  Zr10  1  0.25000000  0.75000000  0.25000000  1.0
  Zr  Zr11  1  0.25000000  0.75000000  0.75000000  1.0
  Zr  Zr12  1  0.75000000  0.25000000  0.25000000  1.0
  Zr  Zr13  1  0.75000000  0.25000000  0.75000000  1.0
  Zr  Zr14  1  0.75000000  0.75000000  0.25000000  1.0
  Zr  Zr15  1  0.75000000  0.75000000  0.75000000  1.0
  O  O16  1  0.25000000  0.00000000  0.09697750  1.0
  O  O17  1  0.25000000  0.00000000  0.59697750  1.0
  O  O18  1  0.25000000  0.50000000  0.09697750  1.0
  O  O19  1  0.25000000  0.50000000  0.59697750  1.0
  O  O20  1  0.75000000  0.00000000  0.09697750  1.0
  O  O21  1  0.75000000  0.00000000  0.59697750  1.0
  O  O22  1  0.75000000  0.50000000  0.09697750  1.0
  O  O23  1  0.75000000  0.50000000  0.59697750  1.0
  O  O24  1  1.00000000  0.25000000  0.15302250  1.0
  O  O25  1  1.00000000  0.25000000  0.65302250  1.0
  O  O26  1  1.00000000  0.75000000  0.15302250  1.0
  O  O27  1  1.00000000  0.75000000  0.65302250  1.0
  O  O28  1  0.50000000  0.25000000  0.15302250  1.0
  O  O29  1  0.50000000  0.25000000  0.65302250  1.0
  O  O30  1  0.50000000  0.75000000  0.15302250  1.0
  O  O31  1  0.50000000  0.75000000  0.65302250  1.0
  O  O32  1  1.00000000  0.25000000  0.40302250  1.0
  O  O33  1  1.00000000  0.25000000  0.90302250  1.0
  O  O34  1  1.00000000  0.75000000  0.40302250  1.0
  O  O35  1  1.00000000  0.75000000  0.90302250  1.0
  O  O36  1  0.50000000  0.25000000  0.40302250  1.0
  O  O37  1  0.50000000  0.25000000  0.90302250  1.0
  O  O38  1  0.50000000  0.75000000  0.40302250  1.0
  O  O39  1  0.50000000  0.75000000  0.90302250  1.0
  O  O40  1  0.25000000  0.00000000  0.34697750  1.0
  O  O41  1  0.25000000  0.00000000  0.84697750  1.0
  O  O42  1  0.25000000  0.50000000  0.34697750  1.0
  O  O43  1  0.25000000  0.50000000  0.84697750  1.0
  O  O44  1  0.75000000  0.00000000  0.34697750  1.0
  O  O45  1  0.75000000  0.00000000  0.84697750  1.0
  O  O46  1  0.75000000  0.50000000  0.34697750  1.0
  O  O47  1  0.75000000  0.50000000  0.84697750  1.0
